<?xml version="1.0" encoding="UTF-8"?>
<flow id="eedc31e9-dd34-49a3-b295-c99b10818b66">
  <descriptionCdata><![CDATA[eedc31e9-dd34-49a3-b295-c99b10818b66.c571f6ea-9467-47be-bc7a-e1af5694d28b.description=<pre>Writes the data from "contents" input to the requested file. The operation can be used to overwrite existing content of the file,  append extra lines to it or even create a new file.\n\nInput Parameters\:\nfile                - Full path to file (can be a UNC path, will attempt to create directory structure). If the file does not exist it is created first.\ncontents        - The contents to write to the file. Contents can have a new line delimiter which is also given as input to the operation, but it is optional. Example\: "This is line no. 01\\nThis is line no. 2\\n" where \\n is the delimiter.\nuser              - Username to use for thread impersonation on the RAS host for this operation.\npassword      - Password for the user.\ndelimiter       - Specifies the newline delimiter (\\n, \\r\\n, etc) that is used for the "contents" input.\noverwrite      - Specifies whether to overwrite the file or append to it. By default, the used value is true. Accepted values\: true, false or the empty string. If this is left empty, the file will be overwritten.\ncharacterSet - The character encoding used to write to the file. The default is UTF-8. Example values\: windows-1252, UTF-16, UTF-16BE,  ISO-8859-1, US-ASCII, Shift_JIS etc.\n\nResponses\:\nsuccess - The contents were written to the file.\nfailure - The operation did not succeed in writing the contents to file.\n</pre>
eedc31e9-dd34-49a3-b295-c99b10818b66.de17dfe6-4256-4ca3-9d62-6db32d88e5e4.description=<pre>\nThis operation executes PowerShell scripts on a given host.\n\nInputs\:\n    host - The hostname or IP address of the PowerShell host. If you specify this input then you should not specify URI and shellURI.\nDefault value\: localhost\n    URI - Specifies a Uniform Resource Identifier (URI) that defines the connection endpoint for the interactive session. \nValue format\: <Transport>\://<ComputerName>\:<Port>/<ApplicationName>\nExample\: http\://exch2010CAS1/Powershell?serializationLevel\=Full\n    shellURI - Gets the Uniform Resource Identifier (URI) of the shell that is launched when the connection is made.\nExample\: http\://schemas.microsoft.com/powershell/Microsoft.Exchange\n    username - The username to use when connecting to the server.\nValue format\: username@domain or domain\\username.\n    password - The password to use when connecting to the server.\n    configurationName - The name of the PSSessionConfiguration to use. This can be used to target specific versions of PowerShell if the PSSessionConfiguration is properly configured on the target. By default, after PSRemoting is enabled on the target, the configuration name for PowerShell v5 or lower is 'microsoft.powershell', for PowerShell v6 is 'PowerShell.6', for PowerShell v7 is 'PowerShell.7'. Additional configurations can be created by the user on the target machines.\nValid values\: any PSConfiguration that exists on the host.\nExamples\: 'microsoft.powershell', 'PowerShell.6', 'PowerShell.7'\n    authType - Specifies the mechanism that is used to authenticate the user's credentials. \nValid values\: Default, Basic, Negotiate, NegotiateWithImplicitCredential, Credssp, Digest and Kerberos. (case-insensitive)\nDefault value\: Default\n    connectionTimeout - Determines how long the client computer waits for the remote session connection to be established. When the interval expires, the command to establish the connection fails. Enter a positive value in milliseconds.\nDefault value\: 180000 (3 minutes).\n    scriptTimeout - Determines how long the client computer waits for the PowerShell script to be executed. When the interval expires, the operation fails. Enter a positive value in milliseconds. An empty value means no time-out; the script execution continues indefinitely.\n    useSSL - If true, the operation uses the Secure Sockets Layer (SSL) protocol to establish a connection to the remote computer. By default, SSL is not used. WS-Management encrypts all Windows PowerShell content transmitted over the network. UseSSL is an additional protection that sends the data across an HTTPS connection instead of an HTTP connection. Default port for SSL is 5986.\nDefault value\: false\n    skipCACheck - Indicates whether, when connecting over HTTPS, the client does not validate that the server certificate is signed by a trusted certificate authority (CA).\nDefault value\: true\n    skipCNCheck - Indicates whether the certificate common name (CN) of the server and the hostname of the server are not checked for being the same.\nDefault value\: true\n    port - Specifies the network port on the remote computer that is used for this connection. To connect to a remote computer, the remote computer must be listening on the port that the connection uses. The default ports are 5985 (the WinRM port for HTTP) and 5986 (the WinRM port for HTTPS).\n    keepSessionAlive - If true, the operation will not close the PowerShell runspace (i.e. the PSSession in case of remote connections ) created during the execution and returns the runspaceID as the result of the operation. Actually the PowerShell runspace is saved in the OO session and can be used in other operations using the runspaceID result of previous operation.\nDefault value\: false\n    enablePiping - If true the operation enables piping the way PowerShell does. This input should be used only when keepSessionAlive input is true. First time the piped objects are null and the scope is to save the objects resulted from the PowerShell script execution. Next time the piped objects can be refered in the script as "$_" objects.\nDefault value\: false\nExample\: First, run "Get-Service" script with enablePiping\=true and keepSessionAlive\=true, then run the script  "Select-Object -property name,displayname,status|where-object {$_.Name -lt "C"}" with enablePiping\=true keepSessionAlive\=true. Observe the use of "$_".\n    runspaceID - If not empty, the operation will search the OO session for keys which equal the runspaceID. If the operation finds the runspace specified by the runspaceID it tries to use it and does not create another PowerShell runspace with provided inputs. If the runspace exists but is broken or unavailable the operation uses its authentication parameters and tries to reconnect and recreate the PowerShell runspace. Please note that the operation will use the connection parameters of the runspace identified by runspaceID, not the values provided as user inputs. The operation will take into consideration the connection inputs (i.e. host, username, password, authType, useSSL, etc.) provided by user only if the runspaceID does not exist in the OO session.\n    modules - A list of PowerShell modules to load after the PowerShell connection is established. Each value from the list specifies the name of the module to import. Enter the name of the module or the name of a file in the module, such as a .psd1, .psm1, .dll, or ps1 file. File paths are optional. Wildcards are not permitted. Specify only the module name whenever possible. When you specify a file name, only the members that are implemented in that file are imported. If the module contains other files, they are not imported, and you might be missing important members of the module. The list of modules should be separated by comma "," delimiter.\nExample\: FailoverClusters\n    snapins - A list of PowerShell snapins to load after the PowerShell connection is established. Each value from the list specifies the name of a registered snapin (i.e. the Name, not the AssemblyName or ModuleName).\nExample\: Microsoft.Exchange.Management.PowerShell.E2010\n    script - The script to execute on the PowerShell host. If you want to execute a script from file just provide the file path. Check the notes section for security implications of using this input.\nExample\:c\:\\PowerShellScripts\\GetHost.ps1\n    cmdlet - The name of the PowerShell cmdlet to invoke. If the cmdlet has additional parameters, please provide them as inputs to the operation. If the parameter has the same name as one of the operation's inputs just prefix it with "_". This input is intended to be used together with the PowerShell wizard so please use the script input whenever it's possible.\n    returnTable - If true, the operation will return a table containing a row for each PSObject that the script emits. The table's columns represent the properties of these PSObjects, in the propertyName<delimiter>propertyValue format. If false the operation returns a string representation of the result similar to the output from the PowerShell console.\nDefault value\: false\n    delimiter - The delimiter used to separate each property name from the property value in the output table.\nDefault value\: "\:".\n    colDelimiter - The delimiter used to separate columns in the output table.\nDefault value\: ",".\n    rowDelimiter - The delimiter used to separate rows in the output table.\nDefault value\: newline.\n    hideResults - If this input is added and set to true, the "script", "stdout" and "warnings" results will be hidden. In case of operation failure the "returnResult" will no longer contain the Powershell exception stack-trace details, but the generic message\: "Could not execute powershell command". To use this input you need to manually add it from Studio Inputs tab of the operation, by clicking on the \u201CAdd Input\u201D button.\nValid values\: true, false\nDefault value\: false\n    hideScript - If this input is added and set to true, the "script" result will be hidden. To use this input you need to manually add it from Studio Inputs tab of the operation, by clicking on the \u201CAdd Input\u201D button. In case a value is provided to the hideResults input the hideScript input will be ignored.\nValid values\: true, false\nDefault value\: false\n    localPSRemoting - If this input is added and set to \u2018true\u2019 the operation will use remote impersonation on the local IP address (localhost/loopback) and PowerShell remoting on the same address to execute the script. In this case the credentials under which the script will run must be provided through the \u201Cusername\u201D and \u201Cpassword\u201D inputs. The \u201Chostname\u201D input should be the local ip address or the localhost/loopback address. In case the \u201Chostname\u201D it is left empty the \u2018localhost\u2019 address will be used by default. To use this input you need to manually add it from Studio Inputs tab of the operation, by clicking on the \u201CAdd Input\u201D button.\nValid values\: true, false\nDefault value\: false\n    getLastExitCode - If true, the operation will add $LASTEXITCODE at the end of the script and return the lastExitCode result, if false the lastExitCode result will be empty. Please note that $LASTEXITCODE will be displayed at the end of the "script" result and the "returnResult" result will contain new line at the end which contains a numberfrom 0 to 255 which represents the exit code of the last command in the script. \nValid values\: true, false\nDefault value\: false\n\nResults\:\n    returnResult - The result of the script execution formatted as table or string depending on the returnTable input value as described above. In case of operation failure and "hideResults" is set to true, then this output will no longer contain the powershell exception stacktrace details.\n    script - The actual PowerShell script that was run. This result might be useful when piping is enabled or you want to know exactly the script that was sent to be run on the PowerShell host. Please note that the operation adds "Out-String" command to the end of your script if returnTable input is set to false. This output will be hidden if "hideResults" input is set to true.\n    objectsCount - The number of the PowerShell objects resulted from script execution (e.g. Get-Service will return the number of services found on the target host). This input is relevant only when returnTable is set to true. Otherwise, the value of this result will always be one, because the script returns a string message.\n    warnings - A list of warnings that the cmdlets emit. If the cmdlets were executed without warnings, then this result will be an empty string. This output will be hidden if "hideResults" input is set to true.\n    runspaceID - The runspace ID of the PowerShell runspace created during the execution of the operation.\n    stdout - The result of the commands that succeeded in case the operation fails. In case of operation failure this output will be hidden if "hideResults" input is set to true.\n    lastExitCode -  Holds the last exit code in the powershell script if getLastExitCode is set to true.\n\nResponses\:\n    success - The Powershell script or cmdlet was executed successfully.\n    failure - The command could not be executed.\n\nNotes\:\n1. In order to enable PowerShell scripts execution, run the following command\: Set-ExecutionPolicy RemoteSigned\n2. When interacting with a Microsoft Exchange server, please use the generic Powershell operation available in the Business Application content pack, under /Library/Operations/Exchange/<version specific> folder, instead of loading the Exchange snap-in to this Powershell Script operation. This is a Microsoft Exchange design (http\://www.get-exchange.info/2012/12/30/powershell-scripting-for-exchange-server-some-tips/)\n3. If the "hideResults" is set to false the "script" output will be added to the operation's output in which case the exact script that was executed will be displayed. Displaying the script could be a security risk when encrypted variables (which could be the sensitive data) are passed and referenced in the script, as they will be displayed unobfuscated. Also in case of operation failure the "stdout", "warnings" and "returnResults" outputs could contain the script with unobfuscated sensitive variables in it.\n4. The \u201ClocalPSRemoting\u201D input provides a workaround/alternative to PowerShell impersonation on localhost. It enables the operation to run the script under different users on the local machine.\n5. Use the 'script' input with caution as it can expose the target system to security risks. By exposing the script input as a prompt to the user, it will enable the user to execute any powershell script on the target system taking into account the permissions of the credentials given as inputs.\n6. When keepSessionAlive is set to true and the operation is left to run for many a long time (e.g. hours), the RAS/worker service can crash with an OutOfMemory error. This is expected because while the session is kept open, data accumulates in memory which is released only after the operation completes. To address this issue check HPE OO Administrator Guide on how to increase RAS/worker memory.\n</pre>
]]></descriptionCdata>
  <annotation></annotation>
  <name>Tricous- seRvices_flow</name>
  <categories/>
  <inputs/>
  <possibleResponses>
    <opResponse id="dfc117d7-bd07-43dd-926d-9c85c1eadbc9">
      <annotation></annotation>
      <name>success</name>
      <isDefault>true</isDefault>
      <onFailure>false</onFailure>
      <type>RESOLVED</type>
      <matchRules/>
    </opResponse>
    <opResponse id="4b4e2fba-8fc7-4032-83cb-e6e7786ccd65">
      <annotation></annotation>
      <name>failure</name>
      <isDefault>false</isDefault>
      <onFailure>true</onFailure>
      <type>ERROR</type>
      <matchRules/>
    </opResponse>
  </possibleResponses>
  <availableResultExpressions>
    <expression id="76fb52bd-b758-4799-b1d5-888c02d89c7f">
      <annotation></annotation>
      <name>Services</name>
      <fieldName>runspaceID</fieldName>
      <sourceType>RAWRESULT</sourceType>
      <filters/>
    </expression>
  </availableResultExpressions>
  <resultExpression id="81dac5f3-f057-4612-b5dc-78ef23130a46">
    <annotation></annotation>
    <name>FailureMessage</name>
    <fieldName>FailureMessage</fieldName>
    <sourceType>RAWRESULT</sourceType>
    <filters/>
  </resultExpression>
  <iconSpec id="804effd3-feec-454d-9bd5-e722035a5753">
    <baseIcon>flow.png</baseIcon>
    <basePath>System</basePath>
    <readOnly>false</readOnly>
    <layers/>
  </iconSpec>
  <callouts/>
  <checkPointFlow>true</checkPointFlow>
  <compatibleRuntimeContext>false</compatibleRuntimeContext>
  <historyCheckPointFlow>true</historyCheckPointFlow>
  <steps>
    <step id="de17dfe6-4256-4ca3-9d62-6db32d88e5e4">
      <annotation>eedc31e9-dd34-49a3-b295-c99b10818b66.de17dfe6-4256-4ca3-9d62-6db32d88e5e4.description</annotation>
      <name>PowerShell Script</name>
      <bounds>
        <x>224.0</x>
        <y>212.0</y>
      </bounds>
      <layer>-1</layer>
      <hideInbound>false</hideInbound>
      <addResultToRunContext>false</addResultToRunContext>
      <isCriticalStep>false</isCriticalStep>
      <isNonBlocking>false</isNonBlocking>
      <isParallelStep>false</isParallelStep>
      <isSingleResponse>false</isSingleResponse>
      <recordInHistory>false</recordInHistory>
      <recordRawOutput>true</recordRawOutput>
      <recordPrimaryOutput>true</recordPrimaryOutput>
      <checkPointStep>true</checkPointStep>
      <historyCheckPointStep>true</historyCheckPointStep>
      <scriptResultStep>false</scriptResultStep>
      <userPrompt></userPrompt>
      <bindings>
        <staticBinding id="7941866e-be02-4752-80a1-2f9e70dae0c0">
          <annotation></annotation>
          <toContextKey></toContextKey>
          <fromContextKey></fromContextKey>
          <assignFromContext>false</assignFromContext>
          <assignToContext>false</assignToContext>
          <inputType>STRING</inputType>
          <isList>false</isList>
          <required>false</required>
          <isPersisted>true</isPersisted>
          <inputSymbol>host</inputSymbol>
          <listDelimiter>,</listDelimiter>
          <value></value>
          <record>false</record>
        </staticBinding>
        <staticBinding id="bde9c614-0f53-4fcd-a036-d191ce2679c6">
          <annotation></annotation>
          <assignFromContext>false</assignFromContext>
          <assignToContext>false</assignToContext>
          <inputType>STRING</inputType>
          <isList>false</isList>
          <required>false</required>
          <isPersisted>true</isPersisted>
          <inputSymbol>URI</inputSymbol>
          <listDelimiter>,</listDelimiter>
          <record>false</record>
        </staticBinding>
        <staticBinding id="7c9e55e9-0542-49e7-922d-9ccd6a23ef93">
          <annotation></annotation>
          <assignFromContext>false</assignFromContext>
          <assignToContext>false</assignToContext>
          <inputType>STRING</inputType>
          <isList>false</isList>
          <required>false</required>
          <isPersisted>true</isPersisted>
          <inputSymbol>shellURI</inputSymbol>
          <listDelimiter>,</listDelimiter>
          <record>false</record>
        </staticBinding>
        <staticBinding id="ffee768c-4e2e-4325-9e16-73229dc26fe9">
          <annotation></annotation>
          <toContextKey></toContextKey>
          <fromContextKey></fromContextKey>
          <assignFromContext>false</assignFromContext>
          <assignToContext>false</assignToContext>
          <inputType>STRING</inputType>
          <isList>false</isList>
          <required>false</required>
          <isPersisted>true</isPersisted>
          <inputSymbol>username</inputSymbol>
          <listDelimiter>,</listDelimiter>
          <record>false</record>
        </staticBinding>
        <staticBinding id="c0c86cbe-927b-442a-b31c-abbb84842db8">
          <annotation></annotation>
          <toContextKey></toContextKey>
          <fromContextKey></fromContextKey>
          <assignFromContext>false</assignFromContext>
          <assignToContext>false</assignToContext>
          <inputType>STRING</inputType>
          <isList>false</isList>
          <required>false</required>
          <isPersisted>true</isPersisted>
          <inputSymbol>password</inputSymbol>
          <listDelimiter>,</listDelimiter>
          <value></value>
          <record>false</record>
        </staticBinding>
        <staticBinding id="020fe0e0-f164-4cfb-a357-c5507b400e19">
          <annotation></annotation>
          <assignFromContext>false</assignFromContext>
          <assignToContext>false</assignToContext>
          <inputType>STRING</inputType>
          <isList>false</isList>
          <required>false</required>
          <isPersisted>true</isPersisted>
          <inputSymbol>configurationName</inputSymbol>
          <listDelimiter>,</listDelimiter>
          <record>false</record>
        </staticBinding>
        <staticBinding id="60ef5a7c-5f72-4c09-ad3e-3c72c4a7ae68">
          <annotation></annotation>
          <assignFromContext>false</assignFromContext>
          <assignToContext>false</assignToContext>
          <inputType>STRING</inputType>
          <isList>false</isList>
          <required>false</required>
          <isPersisted>true</isPersisted>
          <inputSymbol>authType</inputSymbol>
          <listDelimiter>,</listDelimiter>
          <value></value>
          <record>false</record>
        </staticBinding>
        <staticBinding id="6df3f31e-057b-4860-a420-01788eee4945">
          <annotation></annotation>
          <assignFromContext>false</assignFromContext>
          <assignToContext>false</assignToContext>
          <inputType>STRING</inputType>
          <isList>false</isList>
          <required>false</required>
          <isPersisted>true</isPersisted>
          <inputSymbol>connectionTimeout</inputSymbol>
          <listDelimiter>,</listDelimiter>
          <record>false</record>
        </staticBinding>
        <staticBinding id="5eec0ef5-ffcd-4bc4-9baf-d4a9fad1de11">
          <annotation></annotation>
          <assignFromContext>false</assignFromContext>
          <assignToContext>false</assignToContext>
          <inputType>STRING</inputType>
          <isList>false</isList>
          <required>false</required>
          <isPersisted>true</isPersisted>
          <inputSymbol>scriptTimeout</inputSymbol>
          <listDelimiter>,</listDelimiter>
          <record>false</record>
        </staticBinding>
        <staticBinding id="bdcc9846-0e27-488e-98da-7e3b15a95141">
          <annotation></annotation>
          <assignFromContext>false</assignFromContext>
          <assignToContext>false</assignToContext>
          <inputType>STRING</inputType>
          <isList>false</isList>
          <required>false</required>
          <isPersisted>true</isPersisted>
          <inputSymbol>useSSL</inputSymbol>
          <listDelimiter>,</listDelimiter>
          <value></value>
          <record>false</record>
        </staticBinding>
        <staticBinding id="4e1f3af4-816b-4704-a0d0-a8954b4fbe9e">
          <annotation></annotation>
          <assignFromContext>false</assignFromContext>
          <assignToContext>false</assignToContext>
          <inputType>STRING</inputType>
          <isList>false</isList>
          <required>false</required>
          <isPersisted>true</isPersisted>
          <inputSymbol>skipCACheck</inputSymbol>
          <listDelimiter>,</listDelimiter>
          <record>false</record>
        </staticBinding>
        <staticBinding id="62e96034-67be-4109-bf3b-238373e795e7">
          <annotation></annotation>
          <assignFromContext>false</assignFromContext>
          <assignToContext>false</assignToContext>
          <inputType>STRING</inputType>
          <isList>false</isList>
          <required>false</required>
          <isPersisted>true</isPersisted>
          <inputSymbol>skipCNCheck</inputSymbol>
          <listDelimiter>,</listDelimiter>
          <record>false</record>
        </staticBinding>
        <staticBinding id="6e881350-aa83-475b-bdf1-ec9146b1300b">
          <annotation></annotation>
          <assignFromContext>false</assignFromContext>
          <assignToContext>false</assignToContext>
          <inputType>STRING</inputType>
          <isList>false</isList>
          <required>false</required>
          <isPersisted>true</isPersisted>
          <inputSymbol>port</inputSymbol>
          <listDelimiter>,</listDelimiter>
          <record>false</record>
        </staticBinding>
        <userInputBinding id="256170a4-a2fa-4046-876c-7499f6bcf7c1">
          <annotation></annotation>
          <assignFromContext>false</assignFromContext>
          <assignToContext>false</assignToContext>
          <inputType>STRING</inputType>
          <isList>false</isList>
          <required>false</required>
          <isPersisted>true</isPersisted>
          <inputSymbol>keepSessionAlive</inputSymbol>
          <listDelimiter>,</listDelimiter>
          <record>false</record>
          <prompt></prompt>
          <isMultiSelect>false</isMultiSelect>
          <link>
            <refId>96a1ed25-cdc9-4ff6-8fba-e9c044c5ca53</refId>
            <refName>Boolean - False Default</refName>
          </link>
          <sourceDelimiter>|</sourceDelimiter>
        </userInputBinding>
        <userInputBinding id="a6190100-feef-4540-a467-cdb8df25b189">
          <annotation></annotation>
          <assignFromContext>false</assignFromContext>
          <assignToContext>false</assignToContext>
          <inputType>STRING</inputType>
          <isList>false</isList>
          <required>false</required>
          <isPersisted>true</isPersisted>
          <inputSymbol>enablePiping</inputSymbol>
          <listDelimiter>,</listDelimiter>
          <record>false</record>
          <prompt></prompt>
          <isMultiSelect>false</isMultiSelect>
          <link>
            <refId>96a1ed25-cdc9-4ff6-8fba-e9c044c5ca53</refId>
            <refName>Boolean - False Default</refName>
          </link>
          <sourceDelimiter>|</sourceDelimiter>
        </userInputBinding>
        <staticBinding id="fae4dfc2-b434-4c0c-91b2-7f0b4f440257">
          <annotation></annotation>
          <assignFromContext>false</assignFromContext>
          <assignToContext>false</assignToContext>
          <inputType>STRING</inputType>
          <isList>false</isList>
          <required>false</required>
          <isPersisted>true</isPersisted>
          <inputSymbol>runspaceID</inputSymbol>
          <listDelimiter>,</listDelimiter>
          <record>false</record>
        </staticBinding>
        <staticBinding id="ed9989d9-d967-4bfd-9c83-ef4541dfcef1">
          <annotation></annotation>
          <assignFromContext>false</assignFromContext>
          <assignToContext>false</assignToContext>
          <inputType>STRING</inputType>
          <isList>false</isList>
          <required>false</required>
          <isPersisted>true</isPersisted>
          <inputSymbol>modules</inputSymbol>
          <listDelimiter>,</listDelimiter>
          <record>false</record>
        </staticBinding>
        <staticBinding id="2cc6630f-04ee-4047-a71d-28c09d3aad06">
          <annotation></annotation>
          <assignFromContext>false</assignFromContext>
          <assignToContext>false</assignToContext>
          <inputType>STRING</inputType>
          <isList>false</isList>
          <required>false</required>
          <isPersisted>true</isPersisted>
          <inputSymbol>snapins</inputSymbol>
          <listDelimiter>,</listDelimiter>
          <record>false</record>
        </staticBinding>
        <staticBinding id="857cc502-3ed1-4f6b-ad79-de19ea273d4c">
          <annotation></annotation>
          <assignFromContext>false</assignFromContext>
          <assignToContext>false</assignToContext>
          <inputType>STRING</inputType>
          <isList>false</isList>
          <required>false</required>
          <isPersisted>true</isPersisted>
          <inputSymbol>script</inputSymbol>
          <listDelimiter>,</listDelimiter>
          <value>get-service|where-object {$_.status -like &quot;*Running*&quot;}</value>
          <record>false</record>
        </staticBinding>
        <staticBinding id="84d773b2-39c9-4e3d-a32f-08d721cdb9a8">
          <annotation></annotation>
          <assignFromContext>false</assignFromContext>
          <assignToContext>false</assignToContext>
          <inputType>STRING</inputType>
          <isList>false</isList>
          <required>false</required>
          <isPersisted>true</isPersisted>
          <inputSymbol>cmdlet</inputSymbol>
          <listDelimiter>,</listDelimiter>
          <record>false</record>
        </staticBinding>
        <userInputBinding id="5b850e65-526b-4cc2-9140-7c625f683ae5">
          <annotation></annotation>
          <assignFromContext>false</assignFromContext>
          <assignToContext>false</assignToContext>
          <inputType>STRING</inputType>
          <isList>false</isList>
          <required>false</required>
          <isPersisted>true</isPersisted>
          <inputSymbol>returnTable</inputSymbol>
          <listDelimiter>,</listDelimiter>
          <record>false</record>
          <prompt></prompt>
          <isMultiSelect>false</isMultiSelect>
          <link>
            <refId>96a1ed25-cdc9-4ff6-8fba-e9c044c5ca53</refId>
            <refName>Boolean - False Default</refName>
          </link>
          <sourceDelimiter>|</sourceDelimiter>
        </userInputBinding>
        <staticBinding id="a521de5b-260e-4059-b45d-f4cc2daadcb8">
          <annotation></annotation>
          <toContextKey></toContextKey>
          <fromContextKey></fromContextKey>
          <assignFromContext>false</assignFromContext>
          <assignToContext>false</assignToContext>
          <inputType>STRING</inputType>
          <isList>false</isList>
          <required>false</required>
          <isPersisted>true</isPersisted>
          <inputSymbol>delimiter</inputSymbol>
          <listDelimiter>,</listDelimiter>